*HEADING

*NODE
       1,                       0.,                       0.,        6.659319448712458
       2,                   0.5336,                       0.,        6.659319448712458
       3,                   1.0672,                       0.,        6.659319448712458
       4,                   1.6008,                       0.,        6.659319448712458
       5,                   2.1344,                       0.,        6.659319448712458
       6,       2.6679999999999997,                       0.,        6.659319448712458
       7,                   3.2016,                       0.,        6.659319448712458
       8,                   3.7352,                       0.,        6.659319448712458
       9,                   4.2688,                       0.,        6.659319448712458
      10,                   4.8024,                       0.,        6.659319448712458
      11,        5.335999999999999,                       0.,        6.659319448712458
      12,        5.869599999999999,                       0.,        6.659319448712458
      13,                   6.4032,                       0.,        6.659319448712458
      14,                   6.9368,                       0.,        6.659319448712458
      15,                   7.4704,                       0.,        6.659319448712458
      16,                    8.004,                       0.,        6.659319448712458
      17,                   8.5376,                       0.,        6.659319448712458
      18,                   9.0712,                       0.,        6.659319448712458
      19,                   9.6048,                       0.,        6.659319448712458
      20,       10.138399999999999,                       0.,        6.659319448712458
** ... 6740 like lines cut
**
** SOLID ELEMENTS
**
*ELEMENT, TYPE=C3D8, ELSET=sample1
       1,        1,        2,       28,       27,      677,      678,      704,      703
       2,        2,        3,       29,       28,      678,      679,      705,      704
       3,        3,        4,       30,       29,      679,      680,      706,      705
       4,        4,        5,       31,       30,      680,      681,      707,      706
       5,        5,        6,       32,       31,      681,      682,      708,      707
       6,        6,        7,       33,       32,      682,      683,      709,      708
       7,        7,        8,       34,       33,      683,      684,      710,      709
       8,        8,        9,       35,       34,      684,      685,      711,      710
       9,        9,       10,       36,       35,      685,      686,      712,      711
      10,       10,       11,       37,       36,      686,      687,      713,      712
      11,       11,       12,       38,       37,      687,      688,      714,      713
      12,       12,       13,       39,       38,      688,      689,      715,      714
      13,       13,       14,       40,       39,      689,      690,      716,      715
      14,       14,       15,       41,       40,      690,      691,      717,      716
      15,       15,       16,       42,       41,      691,      692,      718,      717
      16,       16,       17,       43,       42,      692,      693,      719,      718
      17,       17,       18,       44,       43,      693,      694,      720,      719
      18,       18,       19,       45,       44,      694,      695,      721,      720
      19,       19,       20,       46,       45,      695,      696,      722,      721
      20,       20,       21,       47,       46,      696,      697,      723,      722
** ... 2480 like lines cut
*ELEMENT, TYPE=C3D8, ELSET=sample2
    2501,     3381,     3407,     3408,     3382,     4057,     4083,     4084,     4058
    2502,     3382,     3408,     3409,     3383,     4058,     4084,     4085,     4059
    2503,     3383,     3409,     3410,     3384,     4059,     4085,     4086,     4060
    2504,     3384,     3410,     3411,     3385,     4060,     4086,     4087,     4061
    2505,     3385,     3411,     3412,     3386,     4061,     4087,     4088,     4062
    2506,     3386,     3412,     3413,     3387,     4062,     4088,     4089,     4063
    2507,     3387,     3413,     3414,     3388,     4063,     4089,     4090,     4064
    2508,     3388,     3414,     3415,     3389,     4064,     4090,     4091,     4065
    2509,     3389,     3415,     3416,     3390,     4065,     4091,     4092,     4066
    2510,     3390,     3416,     3417,     3391,     4066,     4092,     4093,     4067
    2511,     3391,     3417,     3418,     3392,     4067,     4093,     4094,     4068
    2512,     3392,     3418,     3419,     3393,     4068,     4094,     4095,     4069
    2513,     3393,     3419,     3420,     3394,     4069,     4095,     4096,     4070
    2514,     3394,     3420,     3421,     3395,     4070,     4096,     4097,     4071
    2515,     3395,     3421,     3422,     3396,     4071,     4097,     4098,     4072
    2516,     3396,     3422,     3423,     3397,     4072,     4098,     4099,     4073
    2517,     3397,     3423,     3424,     3398,     4073,     4099,     4100,     4074
    2518,     3398,     3424,     3425,     3399,     4074,     4100,     4101,     4075
    2519,     3399,     3425,     3426,     3400,     4075,     4101,     4102,     4076
    2520,     3400,     3426,     3427,     3401,     4076,     4102,     4103,     4077
** ... 2480 like lines cut
**
** 
**
**
** 
**
**
** SECTION DATA
**
*SOLID SECTION, ELSET=sample1, MATERIAL=sample1_mat
*SOLID SECTION, ELSET=sample2, MATERIAL=sample2_mat
**
** MATERIALS
**
**
**sample1_mat
**
*MATERIAL, NAME=sample1_mat
*DENSITY
                7.85e-9,
*ELASTIC, TYPE=ISOTROPIC
                   10e10,                      0.3
**
**sample2_mat
**
*MATERIAL, NAME=sample2_mat
*DENSITY
                7.85e-9,
*ELASTIC, TYPE=ISOTROPIC
                   10489.51,                      0.3
**
** 
**
**
** SURFACE DEFINITIONS 
**
*SURFACE, NAME=sample1_roughFacets, TYPE=ELEMENT
       1, S1
       2, S1
       3, S1
       4, S1
       5, S1
       6, S1
       7, S1
       8, S1
       9, S1
      10, S1
      11, S1
      12, S1
      13, S1
      14, S1
      15, S1
      16, S1
      17, S1
      18, S1
      19, S1
      20, S1
** ... 605 like lines cut
*SURFACE, NAME=sample2_roughFacets, TYPE=ELEMENT
    2501, S1
    2502, S1
    2503, S1
    2504, S1
    2505, S1
    2506, S1
    2507, S1
    2508, S1
    2509, S1
    2510, S1
    2511, S1
    2512, S1
    2513, S1
    2514, S1
    2515, S1
    2516, S1
    2517, S1
    2518, S1
    2519, S1
    2520, S1
** ... 605 like lines cut
** 
** SETS
** 
*NSET, NSET=sample1_rough
       1,        2,        3,        4,        5,        6,        7,        8,        9,       10,
      11,       12,       13,       14,       15,       16,       17,       18,       19,       20,
      21,       22,       23,       24,       25,       26,       27,       28,       29,       30,
      31,       32,       33,       34,       35,       36,       37,       38,       39,       40,
      41,       42,       43,       44,       45,       46,       47,       48,       49,       50,
      51,       52,       53,       54,       55,       56,       57,       58,       59,       60,
      61,       62,       63,       64,       65,       66,       67,       68,       69,       70,
      71,       72,       73,       74,       75,       76,       77,       78,       79,       80,
      81,       82,       83,       84,       85,       86,       87,       88,       89,       90,
      91,       92,       93,       94,       95,       96,       97,       98,       99,      100,
     101,      102,      103,      104,      105,      106,      107,      108,      109,      110,
     111,      112,      113,      114,      115,      116,      117,      118,      119,      120,
     121,      122,      123,      124,      125,      126,      127,      128,      129,      130,
     131,      132,      133,      134,      135,      136,      137,      138,      139,      140,
     141,      142,      143,      144,      145,      146,      147,      148,      149,      150,
     151,      152,      153,      154,      155,      156,      157,      158,      159,      160,
     161,      162,      163,      164,      165,      166,      167,      168,      169,      170,
     171,      172,      173,      174,      175,      176,      177,      178,      179,      180,
     181,      182,      183,      184,      185,      186,      187,      188,      189,      190,
     191,      192,      193,      194,      195,      196,      197,      198,      199,      200,
** ... 48 like lines cut
*NSET, NSET=sample1_smooth
    2705,     2706,     2707,     2708,     2709,     2710,     2711,     2712,     2713,     2714,
    2715,     2716,     2717,     2718,     2719,     2720,     2721,     2722,     2723,     2724,
    2725,     2726,     2727,     2728,     2729,     2730,     2731,     2732,     2733,     2734,
    2735,     2736,     2737,     2738,     2739,     2740,     2741,     2742,     2743,     2744,
    2745,     2746,     2747,     2748,     2749,     2750,     2751,     2752,     2753,     2754,
    2755,     2756,     2757,     2758,     2759,     2760,     2761,     2762,     2763,     2764,
    2765,     2766,     2767,     2768,     2769,     2770,     2771,     2772,     2773,     2774,
    2775,     2776,     2777,     2778,     2779,     2780,     2781,     2782,     2783,     2784,
    2785,     2786,     2787,     2788,     2789,     2790,     2791,     2792,     2793,     2794,
    2795,     2796,     2797,     2798,     2799,     2800,     2801,     2802,     2803,     2804,
    2805,     2806,     2807,     2808,     2809,     2810,     2811,     2812,     2813,     2814,
    2815,     2816,     2817,     2818,     2819,     2820,     2821,     2822,     2823,     2824,
    2825,     2826,     2827,     2828,     2829,     2830,     2831,     2832,     2833,     2834,
    2835,     2836,     2837,     2838,     2839,     2840,     2841,     2842,     2843,     2844,
    2845,     2846,     2847,     2848,     2849,     2850,     2851,     2852,     2853,     2854,
    2855,     2856,     2857,     2858,     2859,     2860,     2861,     2862,     2863,     2864,
    2865,     2866,     2867,     2868,     2869,     2870,     2871,     2872,     2873,     2874,
    2875,     2876,     2877,     2878,     2879,     2880,     2881,     2882,     2883,     2884,
    2885,     2886,     2887,     2888,     2889,     2890,     2891,     2892,     2893,     2894,
    2895,     2896,     2897,     2898,     2899,     2900,     2901,     2902,     2903,     2904,
** ... 48 like lines cut
*NSET, NSET=sample1_Ymin
       1,        2,        3,        4,        5,        6,        7,        8,        9,       10,
      11,       12,       13,       14,       15,       16,       17,       18,       19,       20,
      21,       22,       23,       24,       25,       26,      677,      678,      679,      680,
     681,      682,      683,      684,      685,      686,      687,      688,      689,      690,
     691,      692,      693,      694,      695,      696,      697,      698,      699,      700,
     701,      702,     1353,     1354,     1355,     1356,     1357,     1358,     1359,     1360,
    1361,     1362,     1363,     1364,     1365,     1366,     1367,     1368,     1369,     1370,
    1371,     1372,     1373,     1374,     1375,     1376,     1377,     1378,     2029,     2030,
    2031,     2032,     2033,     2034,     2035,     2036,     2037,     2038,     2039,     2040,
    2041,     2042,     2043,     2044,     2045,     2046,     2047,     2048,     2049,     2050,
    2051,     2052,     2053,     2054,     2705,     2706,     2707,     2708,     2709,     2710,
    2711,     2712,     2713,     2714,     2715,     2716,     2717,     2718,     2719,     2720,
    2721,     2722,     2723,     2724,     2725,     2726,     2727,     2728,     2729,     2730
*NSET, NSET=sample1_Ymax
     651,      652,      653,      654,      655,      656,      657,      658,      659,      660,
     661,      662,      663,      664,      665,      666,      667,      668,      669,      670,
     671,      672,      673,      674,      675,      676,     1327,     1328,     1329,     1330,
    1331,     1332,     1333,     1334,     1335,     1336,     1337,     1338,     1339,     1340,
    1341,     1342,     1343,     1344,     1345,     1346,     1347,     1348,     1349,     1350,
    1351,     1352,     2003,     2004,     2005,     2006,     2007,     2008,     2009,     2010,
    2011,     2012,     2013,     2014,     2015,     2016,     2017,     2018,     2019,     2020,
    2021,     2022,     2023,     2024,     2025,     2026,     2027,     2028,     2679,     2680,
    2681,     2682,     2683,     2684,     2685,     2686,     2687,     2688,     2689,     2690,
    2691,     2692,     2693,     2694,     2695,     2696,     2697,     2698,     2699,     2700,
    2701,     2702,     2703,     2704,     3355,     3356,     3357,     3358,     3359,     3360,
    3361,     3362,     3363,     3364,     3365,     3366,     3367,     3368,     3369,     3370,
    3371,     3372,     3373,     3374,     3375,     3376,     3377,     3378,     3379,     3380
*NSET, NSET=sample1_Xmin
       1,       27,       53,       79,      105,      131,      157,      183,      209,      235,
     261,      287,      313,      339,      365,      391,      417,      443,      469,      495,
     521,      547,      573,      599,      625,      651,      677,      703,      729,      755,
     781,      807,      833,      859,      885,      911,      937,      963,      989,     1015,
    1041,     1067,     1093,     1119,     1145,     1171,     1197,     1223,     1249,     1275,
    1301,     1327,     1353,     1379,     1405,     1431,     1457,     1483,     1509,     1535,
    1561,     1587,     1613,     1639,     1665,     1691,     1717,     1743,     1769,     1795,
    1821,     1847,     1873,     1899,     1925,     1951,     1977,     2003,     2029,     2055,
    2081,     2107,     2133,     2159,     2185,     2211,     2237,     2263,     2289,     2315,
    2341,     2367,     2393,     2419,     2445,     2471,     2497,     2523,     2549,     2575,
    2601,     2627,     2653,     2679,     2705,     2731,     2757,     2783,     2809,     2835,
    2861,     2887,     2913,     2939,     2965,     2991,     3017,     3043,     3069,     3095,
    3121,     3147,     3173,     3199,     3225,     3251,     3277,     3303,     3329,     3355
*NSET, NSET=sample1_Xmax
      26,       52,       78,      104,      130,      156,      182,      208,      234,      260,
     286,      312,      338,      364,      390,      416,      442,      468,      494,      520,
     546,      572,      598,      624,      650,      676,      702,      728,      754,      780,
     806,      832,      858,      884,      910,      936,      962,      988,     1014,     1040,
    1066,     1092,     1118,     1144,     1170,     1196,     1222,     1248,     1274,     1300,
    1326,     1352,     1378,     1404,     1430,     1456,     1482,     1508,     1534,     1560,
    1586,     1612,     1638,     1664,     1690,     1716,     1742,     1768,     1794,     1820,
    1846,     1872,     1898,     1924,     1950,     1976,     2002,     2028,     2054,     2080,
    2106,     2132,     2158,     2184,     2210,     2236,     2262,     2288,     2314,     2340,
    2366,     2392,     2418,     2444,     2470,     2496,     2522,     2548,     2574,     2600,
    2626,     2652,     2678,     2704,     2730,     2756,     2782,     2808,     2834,     2860,
    2886,     2912,     2938,     2964,     2990,     3016,     3042,     3068,     3094,     3120,
    3146,     3172,     3198,     3224,     3250,     3276,     3302,     3328,     3354,     3380
*NSET, NSET=sample2_rough
    3381,     3382,     3383,     3384,     3385,     3386,     3387,     3388,     3389,     3390,
    3391,     3392,     3393,     3394,     3395,     3396,     3397,     3398,     3399,     3400,
    3401,     3402,     3403,     3404,     3405,     3406,     3407,     3408,     3409,     3410,
    3411,     3412,     3413,     3414,     3415,     3416,     3417,     3418,     3419,     3420,
    3421,     3422,     3423,     3424,     3425,     3426,     3427,     3428,     3429,     3430,
    3431,     3432,     3433,     3434,     3435,     3436,     3437,     3438,     3439,     3440,
    3441,     3442,     3443,     3444,     3445,     3446,     3447,     3448,     3449,     3450,
    3451,     3452,     3453,     3454,     3455,     3456,     3457,     3458,     3459,     3460,
    3461,     3462,     3463,     3464,     3465,     3466,     3467,     3468,     3469,     3470,
    3471,     3472,     3473,     3474,     3475,     3476,     3477,     3478,     3479,     3480,
    3481,     3482,     3483,     3484,     3485,     3486,     3487,     3488,     3489,     3490,
    3491,     3492,     3493,     3494,     3495,     3496,     3497,     3498,     3499,     3500,
    3501,     3502,     3503,     3504,     3505,     3506,     3507,     3508,     3509,     3510,
    3511,     3512,     3513,     3514,     3515,     3516,     3517,     3518,     3519,     3520,
    3521,     3522,     3523,     3524,     3525,     3526,     3527,     3528,     3529,     3530,
    3531,     3532,     3533,     3534,     3535,     3536,     3537,     3538,     3539,     3540,
    3541,     3542,     3543,     3544,     3545,     3546,     3547,     3548,     3549,     3550,
    3551,     3552,     3553,     3554,     3555,     3556,     3557,     3558,     3559,     3560,
    3561,     3562,     3563,     3564,     3565,     3566,     3567,     3568,     3569,     3570,
    3571,     3572,     3573,     3574,     3575,     3576,     3577,     3578,     3579,     3580,
** ... 48 like lines cut
*NSET, NSET=sample2_smooth
    6085,     6086,     6087,     6088,     6089,     6090,     6091,     6092,     6093,     6094,
    6095,     6096,     6097,     6098,     6099,     6100,     6101,     6102,     6103,     6104,
    6105,     6106,     6107,     6108,     6109,     6110,     6111,     6112,     6113,     6114,
    6115,     6116,     6117,     6118,     6119,     6120,     6121,     6122,     6123,     6124,
    6125,     6126,     6127,     6128,     6129,     6130,     6131,     6132,     6133,     6134,
    6135,     6136,     6137,     6138,     6139,     6140,     6141,     6142,     6143,     6144,
    6145,     6146,     6147,     6148,     6149,     6150,     6151,     6152,     6153,     6154,
    6155,     6156,     6157,     6158,     6159,     6160,     6161,     6162,     6163,     6164,
    6165,     6166,     6167,     6168,     6169,     6170,     6171,     6172,     6173,     6174,
    6175,     6176,     6177,     6178,     6179,     6180,     6181,     6182,     6183,     6184,
    6185,     6186,     6187,     6188,     6189,     6190,     6191,     6192,     6193,     6194,
    6195,     6196,     6197,     6198,     6199,     6200,     6201,     6202,     6203,     6204,
    6205,     6206,     6207,     6208,     6209,     6210,     6211,     6212,     6213,     6214,
    6215,     6216,     6217,     6218,     6219,     6220,     6221,     6222,     6223,     6224,
    6225,     6226,     6227,     6228,     6229,     6230,     6231,     6232,     6233,     6234,
    6235,     6236,     6237,     6238,     6239,     6240,     6241,     6242,     6243,     6244,
    6245,     6246,     6247,     6248,     6249,     6250,     6251,     6252,     6253,     6254,
    6255,     6256,     6257,     6258,     6259,     6260,     6261,     6262,     6263,     6264,
    6265,     6266,     6267,     6268,     6269,     6270,     6271,     6272,     6273,     6274,
    6275,     6276,     6277,     6278,     6279,     6280,     6281,     6282,     6283,     6284,
** ... 48 like lines cut
*NSET, NSET=sample2_Ymin
    3381,     3382,     3383,     3384,     3385,     3386,     3387,     3388,     3389,     3390,
    3391,     3392,     3393,     3394,     3395,     3396,     3397,     3398,     3399,     3400,
    3401,     3402,     3403,     3404,     3405,     3406,     4057,     4058,     4059,     4060,
    4061,     4062,     4063,     4064,     4065,     4066,     4067,     4068,     4069,     4070,
    4071,     4072,     4073,     4074,     4075,     4076,     4077,     4078,     4079,     4080,
    4081,     4082,     4733,     4734,     4735,     4736,     4737,     4738,     4739,     4740,
    4741,     4742,     4743,     4744,     4745,     4746,     4747,     4748,     4749,     4750,
    4751,     4752,     4753,     4754,     4755,     4756,     4757,     4758,     5409,     5410,
    5411,     5412,     5413,     5414,     5415,     5416,     5417,     5418,     5419,     5420,
    5421,     5422,     5423,     5424,     5425,     5426,     5427,     5428,     5429,     5430,
    5431,     5432,     5433,     5434,     6085,     6086,     6087,     6088,     6089,     6090,
    6091,     6092,     6093,     6094,     6095,     6096,     6097,     6098,     6099,     6100,
    6101,     6102,     6103,     6104,     6105,     6106,     6107,     6108,     6109,     6110
*NSET, NSET=sample2_Ymax
    4031,     4032,     4033,     4034,     4035,     4036,     4037,     4038,     4039,     4040,
    4041,     4042,     4043,     4044,     4045,     4046,     4047,     4048,     4049,     4050,
    4051,     4052,     4053,     4054,     4055,     4056,     4707,     4708,     4709,     4710,
    4711,     4712,     4713,     4714,     4715,     4716,     4717,     4718,     4719,     4720,
    4721,     4722,     4723,     4724,     4725,     4726,     4727,     4728,     4729,     4730,
    4731,     4732,     5383,     5384,     5385,     5386,     5387,     5388,     5389,     5390,
    5391,     5392,     5393,     5394,     5395,     5396,     5397,     5398,     5399,     5400,
    5401,     5402,     5403,     5404,     5405,     5406,     5407,     5408,     6059,     6060,
    6061,     6062,     6063,     6064,     6065,     6066,     6067,     6068,     6069,     6070,
    6071,     6072,     6073,     6074,     6075,     6076,     6077,     6078,     6079,     6080,
    6081,     6082,     6083,     6084,     6735,     6736,     6737,     6738,     6739,     6740,
    6741,     6742,     6743,     6744,     6745,     6746,     6747,     6748,     6749,     6750,
    6751,     6752,     6753,     6754,     6755,     6756,     6757,     6758,     6759,     6760
*NSET, NSET=sample2_Xmin
    3381,     3407,     3433,     3459,     3485,     3511,     3537,     3563,     3589,     3615,
    3641,     3667,     3693,     3719,     3745,     3771,     3797,     3823,     3849,     3875,
    3901,     3927,     3953,     3979,     4005,     4031,     4057,     4083,     4109,     4135,
    4161,     4187,     4213,     4239,     4265,     4291,     4317,     4343,     4369,     4395,
    4421,     4447,     4473,     4499,     4525,     4551,     4577,     4603,     4629,     4655,
    4681,     4707,     4733,     4759,     4785,     4811,     4837,     4863,     4889,     4915,
    4941,     4967,     4993,     5019,     5045,     5071,     5097,     5123,     5149,     5175,
    5201,     5227,     5253,     5279,     5305,     5331,     5357,     5383,     5409,     5435,
    5461,     5487,     5513,     5539,     5565,     5591,     5617,     5643,     5669,     5695,
    5721,     5747,     5773,     5799,     5825,     5851,     5877,     5903,     5929,     5955,
    5981,     6007,     6033,     6059,     6085,     6111,     6137,     6163,     6189,     6215,
    6241,     6267,     6293,     6319,     6345,     6371,     6397,     6423,     6449,     6475,
    6501,     6527,     6553,     6579,     6605,     6631,     6657,     6683,     6709,     6735
*NSET, NSET=sample2_Xmax
    3406,     3432,     3458,     3484,     3510,     3536,     3562,     3588,     3614,     3640,
    3666,     3692,     3718,     3744,     3770,     3796,     3822,     3848,     3874,     3900,
    3926,     3952,     3978,     4004,     4030,     4056,     4082,     4108,     4134,     4160,
    4186,     4212,     4238,     4264,     4290,     4316,     4342,     4368,     4394,     4420,
    4446,     4472,     4498,     4524,     4550,     4576,     4602,     4628,     4654,     4680,
    4706,     4732,     4758,     4784,     4810,     4836,     4862,     4888,     4914,     4940,
    4966,     4992,     5018,     5044,     5070,     5096,     5122,     5148,     5174,     5200,
    5226,     5252,     5278,     5304,     5330,     5356,     5382,     5408,     5434,     5460,
    5486,     5512,     5538,     5564,     5590,     5616,     5642,     5668,     5694,     5720,
    5746,     5772,     5798,     5824,     5850,     5876,     5902,     5928,     5954,     5980,
    6006,     6032,     6058,     6084,     6110,     6136,     6162,     6188,     6214,     6240,
    6266,     6292,     6318,     6344,     6370,     6396,     6422,     6448,     6474,     6500,
    6526,     6552,     6578,     6604,     6630,     6656,     6682,     6708,     6734,     6760
** ------------------------------------------------------------------------
** SURFACE INTERACTIONS
**
*SURFACE INTERACTION, NAME=SURF_INTERACTION
1.,
*FRICTION
0.0,
*Surface Behavior, pressure-overclosure=HARD
**
** CONTACT and TIE DEFINITIONS 
**
*CONTACT PAIR, INTERACTION=SURF_INTERACTION, TYPE=SURFACE TO SURFACE
sample1_roughFacets, sample2_roughFacets
** ------------------------------------------------------------------------
**
** BOUNDARY CONDITIONS
** 
** for bottom volume **
*Boundary
sample2_smooth, ENCASTRE
*Boundary
sample2_Xmin, 1, 1
*Boundary
sample2_Xmax, 1, 1
*Boundary
sample2_Ymin, 2, 2
*Boundary
sample2_Ymax, 2, 2
** for top volume **
*Boundary
sample1_Xmin, 1, 1
*Boundary
sample1_Xmax, 1, 1
*Boundary
sample1_Ymin, 2, 2
*Boundary
sample1_Ymax, 2, 2
**
** ----------------------------------------------------------------
** 
** STEP: load
** 
*Step, name=load, nlgeom=NO
*Dynamic,application=QUASI-STATIC,initial=NO
0.1,  1., 1e-6, 0.1
**
** BOUNDARY CONDITIONS
**
** Name: Disp-BC-load Type: Displacement/Rotation
*Boundary
sample1_smooth, 3, 3, -3
**
** OUTPUT REQUESTS
**
*Restart, write, frequency=0
**
** FIELD OUTPUT: F-Output-1
**
*Output, field, variable=PRESELECT
*Output, history, variable=PRESELECT
**
** HISTORY OUTPUT: contact stresses
**
*Output, history, frequency=1
*Contact Output, surface=sample1_roughFacets
CPRESS, CAREA
**
** HISTORY OUTPUT - clearance
**
*Output, history, frequency=1
*Node Output, nset=sample2_rough
U3
*Node Output, nset=sample2_smooth
RF1,RF2,RF3
*End Step
